                                  MODFLOW-2005     
      U.S. GEOLOGICAL SURVEY MODULAR FINITE-DIFFERENCE GROUND-WATER FLOW MODEL
                            VERSION 1.12.00 2/3/2017

 LIST FILE: p03_mf.list
                         UNIT    2

 OPENING p03_mf.dis
 FILE TYPE:DIS   UNIT   11   STATUS:OLD    
 FORMAT:FORMATTED              ACCESS:SEQUENTIAL          

 OPENING p03_mf.bas
 FILE TYPE:BAS6   UNIT   13   STATUS:OLD    
 FORMAT:FORMATTED              ACCESS:SEQUENTIAL          

 OPENING p03_mf.lpf
 FILE TYPE:LPF   UNIT   15   STATUS:OLD    
 FORMAT:FORMATTED              ACCESS:SEQUENTIAL          

 OPENING p03_mf.wel
 FILE TYPE:WEL   UNIT   20   STATUS:OLD    
 FORMAT:FORMATTED              ACCESS:SEQUENTIAL          

 OPENING p03_mf.pcg
 FILE TYPE:PCG   UNIT   27   STATUS:OLD    
 FORMAT:FORMATTED              ACCESS:SEQUENTIAL          

 OPENING p03_mf.lmt6
 FILE TYPE:LMT6   UNIT   30   STATUS:OLD    
 FORMAT:FORMATTED              ACCESS:SEQUENTIAL          

 BAS -- BASIC PACKAGE, VERSION 7, 5/2/2005 INPUT READ FROM UNIT   13
 
 MODFLOW was compiled using mixed precision
 Precision of REAL variables:           6
 Precision of DOUBLE PRECISION variables:          15

 DISCRETIZATION INPUT DATA READ FROM UNIT   11
 # DIS package for  MODFLOW-2005, generated by Flopy.
    1 LAYERS        31 ROWS        46 COLUMNS
    1 STRESS PERIOD(S) IN SIMULATION
 MODEL TIME UNIT IS DAYS
 MODEL LENGTH UNIT IS METERS
  Confining bed flag for each layer:
   0

                     DELR =   10.0293    

                     DELC =   10.1337    

 TOP ELEVATION OF LAYER 1 =   10.0000    

   MODEL LAYER BOTTOM EL. =   0.00000     FOR LAYER   1


 STRESS PERIOD     LENGTH       TIME STEPS     MULTIPLIER FOR DELT    SS FLAG
 ----------------------------------------------------------------------------
        1         365.0000          1                    1.000         SS

 STEADY-STATE SIMULATION



 
 # BAS6 package for  MODFLOW-2005, generated by Flopy.                           
 THE FREE FORMAT OPTION HAS BEEN SELECTED



                     BOUNDARY ARRAY FOR LAYER   1
 READING ON UNIT   13 WITH FORMAT: (46I10)             

 AQUIFER HEAD WILL BE SET TO  -999.99     AT ALL NO-FLOW NODES (IBOUND=0).



                       INITIAL HEAD FOR LAYER   1
 READING ON UNIT   13 WITH FORMAT: (46E15.6)           

 DEFAULT OUTPUT CONTROL
 THE FOLLOWING OUTPUT COMES AT THE END OF EACH STRESS PERIOD:
 TOTAL VOLUMETRIC BUDGET
           HEAD

 LPF -- LAYER-PROPERTY FLOW PACKAGE, VERSION 7, 5/2/2005
         INPUT READ FROM UNIT   15
 # LPF package for  MODFLOW-2005, generated by Flopy.
 HEAD AT CELLS THAT CONVERT TO DRY= -1.00000E+30
 No named parameters

   LAYER FLAGS:
 LAYER       LAYTYP        LAYAVG         CHANI        LAYVKA        LAYWET
 ---------------------------------------------------------------------------
    1             0             0     1.000E+00             0             0

   INTERPRETATION OF LAYER FLAGS:
                        INTERBLOCK     HORIZONTAL    DATA IN
         LAYER TYPE   TRANSMISSIVITY   ANISOTROPY   ARRAY VKA   WETTABILITY
 LAYER      (LAYTYP)      (LAYAVG)       (CHANI)      (LAYVKA)      (LAYWET)
 ---------------------------------------------------------------------------
    1      CONFINED      HARMONIC     1.000E+00    VERTICAL K  NON-WETTABLE

 WETTING CAPABILITY IS NOT ACTIVE IN ANY LAYER

    HYD. COND. ALONG ROWS =   1.00000     FOR LAYER   1

      VERTICAL HYD. COND. =   1.00000     FOR LAYER   1

 WEL -- WELL PACKAGE, VERSION 7, 5/2/2005 INPUT READ FROM UNIT   20
 # WEL package for  MODFLOW-2005, generated by Flopy.
 No named parameters
 MAXIMUM OF      1 ACTIVE WELLS AT ONE TIME


     0 Well parameters

 PCG -- CONJUGATE-GRADIENT SOLUTION PACKAGE, VERSION 7, 5/2/2005
 # PCG package for  MODFLOW-2005, generated by Flopy.
 MAXIMUM OF     50 CALLS OF SOLUTION ROUTINE
 MAXIMUM OF     30 INTERNAL ITERATIONS PER CALL TO SOLUTION ROUTINE
 MATRIX PRECONDITIONING TYPE :    1



                                    SOLUTION BY THE CONJUGATE-GRADIENT METHOD
                                   -------------------------------------------
                    MAXIMUM NUMBER OF CALLS TO PCG ROUTINE =       50
                        MAXIMUM ITERATIONS PER CALL TO PCG =       30
                               MATRIX PRECONDITIONING TYPE =        1
        RELAXATION FACTOR (ONLY USED WITH PRECOND. TYPE 1) =    0.10000E+01
 PARAMETER OF POLYNOMIAL PRECOND. = 2 (2) OR IS CALCULATED :        0
                         HEAD CHANGE CRITERION FOR CLOSURE =    0.10000E-04
                     RESIDUAL CHANGE CRITERION FOR CLOSURE =    0.10000E-04
            PCG HEAD AND RESIDUAL CHANGE PRINTOUT INTERVAL =      999
     PRINTING FROM SOLVER IS LIMITED(1) OR SUPPRESSED (>1) =        3
                            STEADY-STATE DAMPING PARAMETER =    0.10000E+01
                               TRANSIENT DAMPING PARAMETER =    0.10000E+01


 ***Link-MT3DMS Package v7***
 OPENING LINK-MT3DMS OUTPUT FILE: mt3d_link.ftl                                                                                                                                                                                           
 ON UNIT NUMBER:    54
 FILE TYPE: UNFORMATTED
 HEADER OPTION: EXTENDED
 ***Link-MT3DMS Package v7***

1
                            STRESS PERIOD NO.    1, LENGTH =   365.0000    
                            -----------------------------------------------

                              NUMBER OF TIME STEPS =     1

                               MULTIPLIER FOR DELT =     1.000

                            INITIAL TIME STEP SIZE =   365.0000    

 WELL NO.  LAYER   ROW   COL   STRESS RATE         
 --------------------------------------------------
      1      1     16     16       1.000    

      1 WELL 
 
 SOLVING FOR HEAD 

 SAVING SATURATED THICKNESS AND FLOW TERMS ON UNIT   54 FOR MT3DMS
 BY THE LINK-MT3DMS PACKAGE V7 AT TIME STEP    1, STRESS PERIOD    1

1
              HEAD IN LAYER   1 AT END OF TIME STEP   1 IN STRESS PERIOD    1
  ---------------------------------------------------------------------------

            1           2           3           4           5           6           7           8           9          10
           11          12          13          14          15          16          17          18          19          20
           21          22          23          24          25          26          27          28          29          30
           31          32          33          34          35          36          37          38          39          40
           41          42          43          44          45          46
 ........................................................................................................................
   1    45.13       44.13       43.13       42.13       41.13       40.13       39.12       38.12       37.12       36.12    
        35.12       34.12       33.12       32.11       31.11       30.11       29.11       28.10       27.10       26.10    
        25.09       24.09       23.09       22.08       21.08       20.08       19.07       18.07       17.07       16.06    
        15.06       14.06       13.05       12.05       11.04       10.04       9.036       8.032       7.028       6.024    
        5.020       4.016       3.012       2.008       1.004       0.000    
   2    45.13       44.13       43.13       42.13       41.13       40.13       39.12       38.12       37.12       36.12    
        35.12       34.12       33.12       32.11       31.11       30.11       29.11       28.10       27.10       26.10    
        25.10       24.09       23.09       22.09       21.08       20.08       19.07       18.07       17.07       16.06    
        15.06       14.06       13.05       12.05       11.04       10.04       9.036       8.032       7.028       6.024    
        5.020       4.016       3.012       2.008       1.004       0.000    
   3    45.13       44.13       43.13       42.13       41.13       40.13       39.13       38.12       37.12       36.12    
        35.12       34.12       33.12       32.11       31.11       30.11       29.11       28.10       27.10       26.10    
        25.10       24.09       23.09       22.09       21.08       20.08       19.07       18.07       17.07       16.06    
        15.06       14.06       13.05       12.05       11.04       10.04       9.036       8.032       7.028       6.024    
        5.020       4.016       3.012       2.008       1.004       0.000    
   4    45.13       44.13       43.13       42.13       41.13       40.13       39.13       38.12       37.12       36.12    
        35.12       34.12       33.12       32.11       31.11       30.11       29.11       28.10       27.10       26.10    
        25.10       24.09       23.09       22.09       21.08       20.08       19.07       18.07       17.07       16.06    
        15.06       14.06       13.05       12.05       11.04       10.04       9.036       8.032       7.028       6.024    
        5.020       4.016       3.012       2.008       1.004       0.000    
   5    45.13       44.13       43.13       42.13       41.13       40.13       39.13       38.12       37.12       36.12    
        35.12       34.12       33.12       32.11       31.11       30.11       29.11       28.11       27.10       26.10    
        25.10       24.09       23.09       22.09       21.08       20.08       19.07       18.07       17.07       16.06    
        15.06       14.06       13.05       12.05       11.04       10.04       9.036       8.032       7.028       6.024    
        5.020       4.016       3.012       2.008       1.004       0.000    
   6    45.13       44.13       43.13       42.13       41.13       40.13       39.13       38.12       37.12       36.12    
        35.12       34.12       33.12       32.12       31.11       30.11       29.11       28.11       27.10       26.10    
        25.10       24.09       23.09       22.09       21.08       20.08       19.08       18.07       17.07       16.06    
        15.06       14.06       13.05       12.05       11.04       10.04       9.036       8.032       7.028       6.024    
        5.020       4.016       3.012       2.008       1.004       0.000    
   7    45.13       44.13       43.13       42.13       41.13       40.13       39.13       38.13       37.12       36.12    
        35.12       34.12       33.12       32.12       31.11       30.11       29.11       28.11       27.10       26.10    
        25.10       24.09       23.09       22.09       21.08       20.08       19.08       18.07       17.07       16.06    
        15.06       14.06       13.05       12.05       11.04       10.04       9.036       8.032       7.028       6.024    
        5.020       4.016       3.012       2.008       1.004       0.000    
   8    45.13       44.13       43.13       42.13       41.13       40.13       39.13       38.13       37.12       36.12    
        35.12       34.12       33.12       32.12       31.12       30.11       29.11       28.11       27.11       26.10    
        25.10       24.09       23.09       22.09       21.08       20.08       19.08       18.07       17.07       16.06    
        15.06       14.06       13.05       12.05       11.04       10.04       9.036       8.032       7.028       6.024    
        5.020       4.016       3.012       2.008       1.004       0.000    
   9    45.13       44.13       43.13       42.13       41.13       40.13       39.13       38.13       37.13       36.12    
        35.12       34.12       33.12       32.12       31.12       30.12       29.11       28.11       27.11       26.10    
        25.10       24.10       23.09       22.09       21.08       20.08       19.08       18.07       17.07       16.06    
        15.06       14.06       13.05       12.05       11.04       10.04       9.036       8.032       7.028       6.024    
        5.020       4.016       3.012       2.008       1.004       0.000    
  10    45.13       44.13       43.13       42.13       41.13       40.13       39.13       38.13       37.13       36.13    
        35.12       34.12       33.12       32.12       31.12       30.12       29.12       28.11       27.11       26.10    
        25.10       24.10       23.09       22.09       21.08       20.08       19.08       18.07       17.07       16.06    
        15.06       14.06       13.05       12.05       11.04       10.04       9.036       8.032       7.028       6.024    
        5.020       4.016       3.012       2.008       1.004       0.000    
  11    45.13       44.13       43.13       42.13       41.13       40.13       39.13       38.13       37.13       36.13    
        35.13       34.13       33.12       32.12       31.12       30.12       29.12       28.11       27.11       26.11    
        25.10       24.10       23.09       22.09       21.09       20.08       19.08       18.07       17.07       16.06    
        15.06       14.06       13.05       12.05       11.04       10.04       9.036       8.032       7.028       6.024    
        5.020       4.016       3.012       2.008       1.004       0.000    
  12    45.13       44.13       43.13       42.13       41.13       40.13       39.13       38.13       37.13       36.13    
        35.13       34.13       33.13       32.13       31.13       30.12       29.12       28.12       27.11       26.11    
        25.10       24.10       23.09       22.09       21.09       20.08       19.08       18.07       17.07       16.06    
        15.06       14.06       13.05       12.05       11.04       10.04       9.036       8.032       7.028       6.024    
        5.020       4.016       3.012       2.008       1.004       0.000    
  13    45.13       44.13       43.13       42.13       41.13       40.13       39.13       38.13       37.13       36.13    
        35.13       34.13       33.13       32.13       31.13       30.13       29.12       28.12       27.12       26.11    
        25.10       24.10       23.10       22.09       21.09       20.08       19.08       18.07       17.07       16.06    
        15.06       14.06       13.05       12.05       11.04       10.04       9.036       8.032       7.028       6.024    
        5.020       4.016       3.012       2.008       1.004       0.000    
  14    45.13       44.13       43.13       42.13       41.13       40.13       39.13       38.13       37.13       36.13    
        35.13       34.13       33.13       32.13       31.13       30.13       29.13       28.12       27.12       26.11    
        25.11       24.10       23.10       22.09       21.09       20.08       19.08       18.07       17.07       16.06    
        15.06       14.06       13.05       12.05       11.04       10.04       9.036       8.032       7.028       6.024    
        5.020       4.016       3.012       2.008       1.004       0.000    
  15    45.13       44.13       43.13       42.13       41.13       40.13       39.13       38.13       37.13       36.13    
        35.13       34.13       33.13       32.14       31.14       30.15       29.14       28.13       27.12       26.11    
        25.11       24.10       23.10       22.09       21.09       20.08       19.08       18.07       17.07       16.06    
        15.06       14.06       13.05       12.05       11.04       10.04       9.036       8.032       7.028       6.024    
        5.020       4.016       3.012       2.008       1.004       0.000    
  16    45.13       44.13       43.13       42.13       41.13       40.13       39.13       38.13       37.13       36.13    
        35.13       34.13       33.13       32.14       31.15       30.17       29.14       28.13       27.12       26.11    
        25.11       24.10       23.10       22.09       21.09       20.08       19.08       18.07       17.07       16.06    
        15.06       14.06       13.05       12.05       11.04       10.04       9.036       8.032       7.028       6.024    
        5.020       4.016       3.012       2.008       1.004       0.000    
  17    45.13       44.13       43.13       42.13       41.13       40.13       39.13       38.13       37.13       36.13    
        35.13       34.13       33.13       32.14       31.14       30.15       29.14       28.13       27.12       26.11    
        25.11       24.10       23.10       22.09       21.09       20.08       19.08       18.07       17.07       16.06    
        15.06       14.06       13.05       12.05       11.04       10.04       9.036       8.032       7.028       6.024    
        5.020       4.016       3.012       2.008       1.004       0.000    
  18    45.13       44.13       43.13       42.13       41.13       40.13       39.13       38.13       37.13       36.13    
        35.13       34.13       33.13       32.13       31.13       30.13       29.13       28.12       27.12       26.11    
        25.11       24.10       23.10       22.09       21.09       20.08       19.08       18.07       17.07       16.06    
        15.06       14.06       13.05       12.05       11.04       10.04       9.036       8.032       7.028       6.024    
        5.020       4.016       3.012       2.008       1.004       0.000    
  19    45.13       44.13       43.13       42.13       41.13       40.13       39.13       38.13       37.13       36.13    
        35.13       34.13       33.13       32.13       31.13       30.13       29.12       28.12       27.12       26.11    
        25.10       24.10       23.10       22.09       21.09       20.08       19.08       18.07       17.07       16.06    
        15.06       14.06       13.05       12.05       11.04       10.04       9.036       8.032       7.028       6.024    
        5.020       4.016       3.012       2.008       1.004       0.000    
  20    45.13       44.13       43.13       42.13       41.13       40.13       39.13       38.13       37.13       36.13    
        35.13       34.13       33.13       32.13       31.13       30.12       29.12       28.12       27.11       26.11    
        25.10       24.10       23.09       22.09       21.09       20.08       19.08       18.07       17.07       16.06    
        15.06       14.06       13.05       12.05       11.04       10.04       9.036       8.032       7.028       6.024    
        5.020       4.016       3.012       2.008       1.004       0.000    
  21    45.13       44.13       43.13       42.13       41.13       40.13       39.13       38.13       37.13       36.13    
        35.13       34.13       33.12       32.12       31.12       30.12       29.12       28.11       27.11       26.11    
        25.10       24.10       23.09       22.09       21.09       20.08       19.08       18.07       17.07       16.06    
        15.06       14.06       13.05       12.05       11.04       10.04       9.036       8.032       7.028       6.024    
        5.020       4.016       3.012       2.008       1.004       0.000    
  22    45.13       44.13       43.13       42.13       41.13       40.13       39.13       38.13       37.13       36.13    
        35.12       34.12       33.12       32.12       31.12       30.12       29.12       28.11       27.11       26.10    
        25.10       24.10       23.09       22.09       21.08       20.08       19.08       18.07       17.07       16.06    
        15.06       14.06       13.05       12.05       11.04       10.04       9.036       8.032       7.028       6.024    
        5.020       4.016       3.012       2.008       1.004       0.000    
  23    45.13       44.13       43.13       42.13       41.13       40.13       39.13       38.13       37.13       36.12    
        35.12       34.12       33.12       32.12       31.12       30.12       29.11       28.11       27.11       26.10    
        25.10       24.10       23.09       22.09       21.08       20.08       19.08       18.07       17.07       16.06    
        15.06       14.06       13.05       12.05       11.04       10.04       9.036       8.032       7.028       6.024    
        5.020       4.016       3.012       2.008       1.004       0.000    
  24    45.13       44.13       43.13       42.13       41.13       40.13       39.13       38.13       37.12       36.12    
        35.12       34.12       33.12       32.12       31.12       30.11       29.11       28.11       27.11       26.10    
        25.10       24.09       23.09       22.09       21.08       20.08       19.08       18.07       17.07       16.06    
        15.06       14.06       13.05       12.05       11.04       10.04       9.036       8.032       7.028       6.024    
        5.020       4.016       3.012       2.008       1.004       0.000    
  25    45.13       44.13       43.13       42.13       41.13       40.13       39.13       38.13       37.12       36.12    
        35.12       34.12       33.12       32.12       31.11       30.11       29.11       28.11       27.10       26.10    
        25.10       24.09       23.09       22.09       21.08       20.08       19.08       18.07       17.07       16.06    
        15.06       14.06       13.05       12.05       11.04       10.04       9.036       8.032       7.028       6.024    
        5.020       4.016       3.012       2.008       1.004       0.000    
  26    45.13       44.13       43.13       42.13       41.13       40.13       39.13       38.12       37.12       36.12    
        35.12       34.12       33.12       32.12       31.11       30.11       29.11       28.11       27.10       26.10    
        25.10       24.09       23.09       22.09       21.08       20.08       19.08       18.07       17.07       16.06    
        15.06       14.06       13.05       12.05       11.04       10.04       9.036       8.032       7.028       6.024    
        5.020       4.016       3.012       2.008       1.004       0.000    
  27    45.13       44.13       43.13       42.13       41.13       40.13       39.13       38.12       37.12       36.12    
        35.12       34.12       33.12       32.11       31.11       30.11       29.11       28.11       27.10       26.10    
        25.10       24.09       23.09       22.09       21.08       20.08       19.07       18.07       17.07       16.06    
        15.06       14.06       13.05       12.05       11.04       10.04       9.036       8.032       7.028       6.024    
        5.020       4.016       3.012       2.008       1.004       0.000    
  28    45.13       44.13       43.13       42.13       41.13       40.13       39.13       38.12       37.12       36.12    
        35.12       34.12       33.12       32.11       31.11       30.11       29.11       28.10       27.10       26.10    
        25.10       24.09       23.09       22.09       21.08       20.08       19.07       18.07       17.07       16.06    
        15.06       14.06       13.05       12.05       11.04       10.04       9.036       8.032       7.028       6.024    
        5.020       4.016       3.012       2.008       1.004       0.000    
  29    45.13       44.13       43.13       42.13       41.13       40.13       39.13       38.12       37.12       36.12    
        35.12       34.12       33.12       32.11       31.11       30.11       29.11       28.10       27.10       26.10    
        25.10       24.09       23.09       22.09       21.08       20.08       19.07       18.07       17.07       16.06    
        15.06       14.06       13.05       12.05       11.04       10.04       9.036       8.032       7.028       6.024    
        5.020       4.016       3.012       2.008       1.004       0.000    
  30    45.13       44.13       43.13       42.13       41.13       40.13       39.12       38.12       37.12       36.12    
        35.12       34.12       33.12       32.11       31.11       30.11       29.11       28.10       27.10       26.10    
        25.10       24.09       23.09       22.09       21.08       20.08       19.07       18.07       17.07       16.06    
        15.06       14.06       13.05       12.05       11.04       10.04       9.036       8.032       7.028       6.024    
        5.020       4.016       3.012       2.008       1.004       0.000    
  31    45.13       44.13       43.13       42.13       41.13       40.13       39.12       38.12       37.12       36.12    
        35.12       34.12       33.12       32.11       31.11       30.11       29.11       28.10       27.10       26.10    
        25.09       24.09       23.09       22.08       21.08       20.08       19.07       18.07       17.07       16.06    
        15.06       14.06       13.05       12.05       11.04       10.04       9.036       8.032       7.028       6.024    
        5.020       4.016       3.012       2.008       1.004       0.000    
1
  VOLUMETRIC BUDGET FOR ENTIRE MODEL AT END OF TIME STEP    1, STRESS PERIOD   1
  ------------------------------------------------------------------------------

     CUMULATIVE VOLUMES      L**3       RATES FOR THIS TIME STEP      L**3/T
     ------------------                 ------------------------

           IN:                                      IN:
           ---                                      ---
             STORAGE =           0.0000               STORAGE =           0.0000
       CONSTANT HEAD =      114419.1875         CONSTANT HEAD =         313.4772
               WELLS =         365.0000                 WELLS =           1.0000

            TOTAL IN =      114784.1875              TOTAL IN =         314.4772

          OUT:                                     OUT:
          ----                                     ----
             STORAGE =           0.0000               STORAGE =           0.0000
       CONSTANT HEAD =      114784.1562         CONSTANT HEAD =         314.4771
               WELLS =           0.0000                 WELLS =           0.0000

           TOTAL OUT =      114784.1562             TOTAL OUT =         314.4771

            IN - OUT =       3.1250E-02              IN - OUT =       9.1553E-05

 PERCENT DISCREPANCY =           0.00     PERCENT DISCREPANCY =           0.00






         TIME SUMMARY AT END OF TIME STEP    1 IN STRESS PERIOD    1
                    SECONDS     MINUTES      HOURS       DAYS        YEARS
                    -----------------------------------------------------------
   TIME STEP LENGTH 3.15360E+07 5.25600E+05  8760.0      365.00     0.99932    
 STRESS PERIOD TIME 3.15360E+07 5.25600E+05  8760.0      365.00     0.99932    
         TOTAL TIME 3.15360E+07 5.25600E+05  8760.0      365.00     0.99932    
1

 Run end date and time (yyyy/mm/dd hh:mm:ss): 2019/01/24 19:00:51
 Elapsed run time:  0.008 Seconds

