                                  MODFLOW-2005     
      U.S. GEOLOGICAL SURVEY MODULAR FINITE-DIFFERENCE GROUND-WATER FLOW MODEL
                            VERSION 1.12.00 2/3/2017

 LIST FILE: p05_mf.list
                         UNIT    2

 OPENING p05_mf.dis
 FILE TYPE:DIS   UNIT   11   STATUS:OLD    
 FORMAT:FORMATTED              ACCESS:SEQUENTIAL          

 OPENING p05_mf.bas
 FILE TYPE:BAS6   UNIT   13   STATUS:OLD    
 FORMAT:FORMATTED              ACCESS:SEQUENTIAL          

 OPENING p05_mf.lpf
 FILE TYPE:LPF   UNIT   15   STATUS:OLD    
 FORMAT:FORMATTED              ACCESS:SEQUENTIAL          

 OPENING p05_mf.wel
 FILE TYPE:WEL   UNIT   20   STATUS:OLD    
 FORMAT:FORMATTED              ACCESS:SEQUENTIAL          

 OPENING p05_mf.sip
 FILE TYPE:SIP   UNIT   25   STATUS:OLD    
 FORMAT:FORMATTED              ACCESS:SEQUENTIAL          

 OPENING p05_mf.lmt6
 FILE TYPE:LMT6   UNIT   30   STATUS:OLD    
 FORMAT:FORMATTED              ACCESS:SEQUENTIAL          

 BAS -- BASIC PACKAGE, VERSION 7, 5/2/2005 INPUT READ FROM UNIT   13
 
 MODFLOW was compiled using mixed precision
 Precision of REAL variables:           6
 Precision of DOUBLE PRECISION variables:          15

 DISCRETIZATION INPUT DATA READ FROM UNIT   11
 # DIS package for  MODFLOW-2005, generated by Flopy.
    1 LAYERS        31 ROWS        31 COLUMNS
    1 STRESS PERIOD(S) IN SIMULATION
 MODEL TIME UNIT IS DAYS
 MODEL LENGTH UNIT IS METERS
  Confining bed flag for each layer:
   0

                     DELR =   10.0000    

                     DELC =   10.0000    

 TOP ELEVATION OF LAYER 1 =   10.0000    

   MODEL LAYER BOTTOM EL. =   9.00000     FOR LAYER   1


 STRESS PERIOD     LENGTH       TIME STEPS     MULTIPLIER FOR DELT    SS FLAG
 ----------------------------------------------------------------------------
        1         27.00000          1                    1.000         SS

 STEADY-STATE SIMULATION



 
 # BAS6 package for  MODFLOW-2005, generated by Flopy.                           
 THE FREE FORMAT OPTION HAS BEEN SELECTED



                     BOUNDARY ARRAY FOR LAYER   1
 READING ON UNIT   13 WITH FORMAT: (31I10)             

 AQUIFER HEAD WILL BE SET TO  -999.99     AT ALL NO-FLOW NODES (IBOUND=0).

             INITIAL HEAD =   10.0000     FOR LAYER   1

 DEFAULT OUTPUT CONTROL
 THE FOLLOWING OUTPUT COMES AT THE END OF EACH STRESS PERIOD:
 TOTAL VOLUMETRIC BUDGET
           HEAD

 LPF -- LAYER-PROPERTY FLOW PACKAGE, VERSION 7, 5/2/2005
         INPUT READ FROM UNIT   15
 # LPF package for  MODFLOW-2005, generated by Flopy.
 HEAD AT CELLS THAT CONVERT TO DRY= -1.00000E+30
 No named parameters

   LAYER FLAGS:
 LAYER       LAYTYP        LAYAVG         CHANI        LAYVKA        LAYWET
 ---------------------------------------------------------------------------
    1             0             0     1.000E+00             0             0

   INTERPRETATION OF LAYER FLAGS:
                        INTERBLOCK     HORIZONTAL    DATA IN
         LAYER TYPE   TRANSMISSIVITY   ANISOTROPY   ARRAY VKA   WETTABILITY
 LAYER      (LAYTYP)      (LAYAVG)       (CHANI)      (LAYVKA)      (LAYWET)
 ---------------------------------------------------------------------------
    1      CONFINED      HARMONIC     1.000E+00    VERTICAL K  NON-WETTABLE

 WETTING CAPABILITY IS NOT ACTIVE IN ANY LAYER

    HYD. COND. ALONG ROWS =   1.00000     FOR LAYER   1

      VERTICAL HYD. COND. =   1.00000     FOR LAYER   1

 WEL -- WELL PACKAGE, VERSION 7, 5/2/2005 INPUT READ FROM UNIT   20
 # WEL package for  MODFLOW-2005, generated by Flopy.
 No named parameters
 MAXIMUM OF      1 ACTIVE WELLS AT ONE TIME


     0 Well parameters

 SIP -- STRONGLY-IMPLICIT PROCEDURE SOLUTION PACKAGE
                    VERSION 7, 5/2/2005 INPUT READ FROM UNIT   25
 # SIP package for  MODFLOW-2005, generated by Flopy.
 MAXIMUM OF 200 ITERATIONS ALLOWED FOR CLOSURE
  5 ITERATION PARAMETERS

          SOLUTION BY THE STRONGLY IMPLICIT PROCEDURE
          -------------------------------------------
 MAXIMUM ITERATIONS ALLOWED FOR CLOSURE =      200
                 ACCELERATION PARAMETER =     1.0000    
      HEAD CHANGE CRITERION FOR CLOSURE =    0.10000E-04
      SIP HEAD CHANGE PRINTOUT INTERVAL =      999

     CALCULATE ITERATION PARAMETERS FROM MODEL CALCULATED WSEED


 ***Link-MT3DMS Package v7***
 OPENING LINK-MT3DMS OUTPUT FILE: mt3d_link.ftl                                                                                                                                                                                           
 ON UNIT NUMBER:    54
 FILE TYPE: UNFORMATTED
 HEADER OPTION: EXTENDED
 ***Link-MT3DMS Package v7***

1
                            STRESS PERIOD NO.    1, LENGTH =   27.00000    
                            -----------------------------------------------

                              NUMBER OF TIME STEPS =     1

                               MULTIPLIER FOR DELT =     1.000

                            INITIAL TIME STEP SIZE =   27.00000    

 WELL NO.  LAYER   ROW   COL   STRESS RATE         
 --------------------------------------------------
      1      1     16     16       100.0    

      1 WELL 
 
 SOLVING FOR HEAD 

 AVERAGE SEED = 0.00256753
 MINIMUM SEED = 0.00256753

     5 ITERATION PARAMETERS CALCULATED FROM AVERAGE SEED:

  0.000000E+00 0.774898E+00 0.949329E+00 0.988594E+00 0.997432E+00

    29 ITERATIONS FOR TIME STEP   1 IN STRESS PERIOD    1

 MAXIMUM HEAD CHANGE FOR EACH ITERATION:

    HEAD CHANGE   HEAD CHANGE   HEAD CHANGE   HEAD CHANGE   HEAD CHANGE
  LAYER,ROW,COL LAYER,ROW,COL LAYER,ROW,COL LAYER,ROW,COL LAYER,ROW,COL
 ----------------------------------------------------------------------
      36.14         10.62         9.607         10.40         5.928    
  (  1, 16, 16) (  1, 17, 15) (  1, 16, 16) (  1, 16, 16) (  1, 18, 22)
    -0.3517       -0.4983       -0.4445       -0.5909       -0.1855    
  (  1, 14, 20) (  1, 13, 19) (  1, 16, 16) (  1, 20, 20) (  1, 15, 26)
     0.3299E-01    0.4831E-01    0.4414E-01   -0.3640E-01    0.2147E-01
  (  1, 21, 21) (  1, 21, 21) (  1, 21, 21) (  1, 16, 16) (  1, 14, 18)
     0.2677E-02    0.2682E-02    0.5147E-02    0.1552E-02    0.2043E-02
  (  1, 16, 16) (  1, 16, 16) (  1, 15, 17) (  1, 11, 27) (  1, 11, 13)
     0.3940E-03    0.6511E-03    0.2255E-03    0.4216E-03    0.1290E-03
  (  1, 13, 19) (  1, 14, 18) (  1, 15, 17) (  1, 15, 17) (  1, 11, 11)
    -0.2754E-04   -0.2751E-04   -0.5506E-04   -0.8579E-05
  (  1, 16, 16) (  1, 16, 16) (  1, 16, 16) (  1, 22, 18)


 SAVING SATURATED THICKNESS AND FLOW TERMS ON UNIT   54 FOR MT3DMS
 BY THE LINK-MT3DMS PACKAGE V7 AT TIME STEP    1, STRESS PERIOD    1

1
              HEAD IN LAYER   1 AT END OF TIME STEP   1 IN STRESS PERIOD    1
  ---------------------------------------------------------------------------

            1           2           3           4           5           6           7           8           9          10
           11          12          13          14          15          16          17          18          19          20
           21          22          23          24          25          26          27          28          29          30
           31
 ........................................................................................................................
   1    10.00       10.00       10.00       10.00       10.00       10.00       10.00       10.00       10.00       10.00    
        10.00       10.00       10.00       10.00       10.00       10.00       10.00       10.00       10.00       10.00    
        10.00       10.00       10.00       10.00       10.00       10.00       10.00       10.00       10.00       10.00    
        10.00    
   2    10.00       10.12       10.24       10.36       10.48       10.60       10.72       10.84       10.95       11.05    
        11.15       11.23       11.30       11.35       11.38       11.40       11.38       11.35       11.30       11.23    
        11.15       11.05       10.95       10.84       10.72       10.60       10.48       10.36       10.24       10.12    
        10.00    
   3    10.00       10.24       10.49       10.73       10.97       11.21       11.45       11.68       11.91       12.12    
        12.31       12.48       12.62       12.73       12.79       12.81       12.79       12.73       12.62       12.48    
        12.31       12.12       11.91       11.68       11.45       11.21       10.97       10.73       10.49       10.24    
        10.00    
   4    10.00       10.36       10.73       11.09       11.46       11.82       12.18       12.53       12.87       13.20    
        13.49       13.76       13.97       14.14       14.24       14.27       14.24       14.14       13.97       13.76    
        13.49       13.20       12.87       12.53       12.18       11.82       11.46       11.09       10.73       10.36    
        10.00    
   5    10.00       10.48       10.97       11.46       11.94       12.43       12.92       13.40       13.86       14.30    
        14.71       15.08       15.38       15.61       15.76       15.81       15.76       15.61       15.38       15.08    
        14.71       14.30       13.86       13.40       12.92       12.43       11.94       11.46       10.97       10.48    
        10.00    
   6    10.00       10.60       11.21       11.82       12.43       13.05       13.66       14.27       14.87       15.44    
        15.98       16.46       16.87       17.17       17.37       17.43       17.37       17.17       16.87       16.46    
        15.98       15.44       14.87       14.27       13.66       13.05       12.43       11.82       11.21       10.60    
        10.00    
   7    10.00       10.72       11.45       12.18       12.92       13.66       14.41       15.16       15.90       16.62    
        17.30       17.92       18.44       18.85       19.11       19.19       19.11       18.85       18.44       17.92    
        17.30       16.62       15.90       15.16       14.41       13.66       12.92       12.18       11.45       10.72    
        10.00    
   8    10.00       10.84       11.68       12.53       13.40       14.27       15.16       16.06       16.96       17.84    
        18.69       19.47       20.14       20.67       21.01       21.13       21.01       20.67       20.14       19.47    
        18.69       17.84       16.96       16.06       15.16       14.27       13.40       12.53       11.68       10.84    
        10.00    
   9    10.00       10.95       11.91       12.87       13.86       14.87       15.90       16.96       18.02       19.09    
        20.14       21.12       21.99       22.69       23.14       23.30       23.14       22.69       21.99       21.12    
        20.14       19.09       18.02       16.96       15.90       14.87       13.86       12.87       11.91       10.95    
        10.00    
  10    10.00       11.05       12.12       13.20       14.30       15.44       16.62       17.84       19.09       20.37    
        21.65       22.88       24.01       24.94       25.57       25.79       25.57       24.94       24.01       22.88    
        21.65       20.37       19.09       17.84       16.62       15.44       14.30       13.20       12.12       11.05    
        10.00    
  11    10.00       11.15       12.31       13.49       14.71       15.98       17.30       18.69       20.14       21.65    
        23.20       24.75       26.23       27.50       28.40       28.73       28.40       27.50       26.23       24.75    
        23.20       21.65       20.14       18.69       17.30       15.98       14.71       13.49       12.31       11.15    
        10.00    
  12    10.00       11.23       12.48       13.76       15.08       16.46       17.92       19.47       21.12       22.88    
        24.75       26.70       28.65       30.44       31.79       32.33       31.79       30.44       28.65       26.70    
        24.75       22.88       21.12       19.47       17.92       16.46       15.08       13.76       12.48       11.23    
        10.00    
  13    10.00       11.30       12.62       13.97       15.38       16.87       18.44       20.14       21.99       24.01    
        26.23       28.65       31.23       33.82       35.99       37.00       35.99       33.82       31.23       28.65    
        26.23       24.01       21.99       20.14       18.44       16.87       15.38       13.97       12.62       11.30    
        10.00    
  14    10.00       11.35       12.73       14.14       15.61       17.17       18.85       20.67       22.69       24.94    
        27.50       30.44       33.82       37.59       41.37       43.69       41.37       37.59       33.82       30.44    
        27.50       24.94       22.69       20.67       18.85       17.17       15.61       14.14       12.73       11.35    
        10.00    
  15    10.00       11.38       12.79       14.24       15.76       17.37       19.11       21.01       23.14       25.57    
        28.40       31.79       35.99       41.37       48.20       55.03       48.20       41.37       35.99       31.79    
        28.40       25.57       23.14       21.01       19.11       17.37       15.76       14.24       12.79       11.38    
        10.00    
  16    10.00       11.40       12.81       14.27       15.81       17.43       19.19       21.13       23.30       25.79    
        28.73       32.33       37.00       43.69       55.03       80.03       55.03       43.69       37.00       32.33    
        28.73       25.79       23.30       21.13       19.19       17.43       15.81       14.27       12.81       11.40    
        10.00    
  17    10.00       11.38       12.79       14.24       15.76       17.37       19.11       21.01       23.14       25.57    
        28.40       31.79       35.99       41.37       48.20       55.03       48.20       41.37       35.99       31.79    
        28.40       25.57       23.14       21.01       19.11       17.37       15.76       14.24       12.79       11.38    
        10.00    
  18    10.00       11.35       12.73       14.14       15.61       17.17       18.85       20.67       22.69       24.94    
        27.50       30.44       33.82       37.59       41.37       43.69       41.37       37.59       33.82       30.44    
        27.50       24.94       22.69       20.67       18.85       17.17       15.61       14.14       12.73       11.35    
        10.00    
  19    10.00       11.30       12.62       13.97       15.38       16.87       18.44       20.14       21.99       24.01    
        26.23       28.65       31.23       33.82       35.99       37.00       35.99       33.82       31.23       28.65    
        26.23       24.01       21.99       20.14       18.44       16.87       15.38       13.97       12.62       11.30    
        10.00    
  20    10.00       11.23       12.48       13.76       15.08       16.46       17.92       19.47       21.12       22.88    
        24.75       26.70       28.65       30.44       31.79       32.33       31.79       30.44       28.65       26.70    
        24.75       22.88       21.12       19.47       17.92       16.46       15.08       13.76       12.48       11.23    
        10.00    
  21    10.00       11.15       12.31       13.49       14.71       15.98       17.30       18.69       20.14       21.65    
        23.20       24.75       26.23       27.50       28.40       28.73       28.40       27.50       26.23       24.75    
        23.20       21.65       20.14       18.69       17.30       15.98       14.71       13.49       12.31       11.15    
        10.00    
  22    10.00       11.05       12.12       13.20       14.30       15.44       16.62       17.84       19.09       20.37    
        21.65       22.88       24.01       24.94       25.57       25.79       25.57       24.94       24.01       22.88    
        21.65       20.37       19.09       17.84       16.62       15.44       14.30       13.20       12.12       11.05    
        10.00    
  23    10.00       10.95       11.91       12.87       13.86       14.87       15.90       16.96       18.02       19.09    
        20.14       21.12       21.99       22.69       23.14       23.30       23.14       22.69       21.99       21.12    
        20.14       19.09       18.02       16.96       15.90       14.87       13.86       12.87       11.91       10.95    
        10.00    
  24    10.00       10.84       11.68       12.53       13.40       14.27       15.16       16.06       16.96       17.84    
        18.69       19.47       20.14       20.67       21.01       21.13       21.01       20.67       20.14       19.47    
        18.69       17.84       16.96       16.06       15.16       14.27       13.40       12.53       11.68       10.84    
        10.00    
  25    10.00       10.72       11.45       12.18       12.92       13.66       14.41       15.16       15.90       16.62    
        17.30       17.92       18.44       18.85       19.11       19.19       19.11       18.85       18.44       17.92    
        17.30       16.62       15.90       15.16       14.41       13.66       12.92       12.18       11.45       10.72    
        10.00    
  26    10.00       10.60       11.21       11.82       12.43       13.05       13.66       14.27       14.87       15.44    
        15.98       16.46       16.87       17.17       17.37       17.43       17.37       17.17       16.87       16.46    
        15.98       15.44       14.87       14.27       13.66       13.05       12.43       11.82       11.21       10.60    
        10.00    
  27    10.00       10.48       10.97       11.46       11.94       12.43       12.92       13.40       13.86       14.30    
        14.71       15.08       15.38       15.61       15.76       15.81       15.76       15.61       15.38       15.08    
        14.71       14.30       13.86       13.40       12.92       12.43       11.94       11.46       10.97       10.48    
        10.00    
  28    10.00       10.36       10.73       11.09       11.46       11.82       12.18       12.53       12.87       13.20    
        13.49       13.76       13.97       14.14       14.24       14.27       14.24       14.14       13.97       13.76    
        13.49       13.20       12.87       12.53       12.18       11.82       11.46       11.09       10.73       10.36    
        10.00    
  29    10.00       10.24       10.49       10.73       10.97       11.21       11.45       11.68       11.91       12.12    
        12.31       12.48       12.62       12.73       12.79       12.81       12.79       12.73       12.62       12.48    
        12.31       12.12       11.91       11.68       11.45       11.21       10.97       10.73       10.49       10.24    
        10.00    
  30    10.00       10.12       10.24       10.36       10.48       10.60       10.72       10.84       10.95       11.05    
        11.15       11.23       11.30       11.35       11.38       11.40       11.38       11.35       11.30       11.23    
        11.15       11.05       10.95       10.84       10.72       10.60       10.48       10.36       10.24       10.12    
        10.00    
  31    10.00       10.00       10.00       10.00       10.00       10.00       10.00       10.00       10.00       10.00    
        10.00       10.00       10.00       10.00       10.00       10.00       10.00       10.00       10.00       10.00    
        10.00       10.00       10.00       10.00       10.00       10.00       10.00       10.00       10.00       10.00    
        10.00    
1
  VOLUMETRIC BUDGET FOR ENTIRE MODEL AT END OF TIME STEP    1, STRESS PERIOD   1
  ------------------------------------------------------------------------------

     CUMULATIVE VOLUMES      L**3       RATES FOR THIS TIME STEP      L**3/T
     ------------------                 ------------------------

           IN:                                      IN:
           ---                                      ---
             STORAGE =           0.0000               STORAGE =           0.0000
       CONSTANT HEAD =           0.0000         CONSTANT HEAD =           0.0000
               WELLS =        2700.0000                 WELLS =         100.0000

            TOTAL IN =        2700.0000              TOTAL IN =         100.0000

          OUT:                                     OUT:
          ----                                     ----
             STORAGE =           0.0000               STORAGE =           0.0000
       CONSTANT HEAD =        2700.0007         CONSTANT HEAD =         100.0000
               WELLS =           0.0000                 WELLS =           0.0000

           TOTAL OUT =        2700.0007             TOTAL OUT =         100.0000

            IN - OUT =      -7.3242E-04              IN - OUT =      -2.2888E-05

 PERCENT DISCREPANCY =          -0.00     PERCENT DISCREPANCY =          -0.00






         TIME SUMMARY AT END OF TIME STEP    1 IN STRESS PERIOD    1
                    SECONDS     MINUTES      HOURS       DAYS        YEARS
                    -----------------------------------------------------------
   TIME STEP LENGTH 2.33280E+06  38880.      648.00      27.000     7.39220E-02
 STRESS PERIOD TIME 2.33280E+06  38880.      648.00      27.000     7.39220E-02
         TOTAL TIME 2.33280E+06  38880.      648.00      27.000     7.39220E-02
1

 Run end date and time (yyyy/mm/dd hh:mm:ss): 2019/01/24 18:57:43
 Elapsed run time:  0.005 Seconds

