                                  MODFLOW-2005     
      U.S. GEOLOGICAL SURVEY MODULAR FINITE-DIFFERENCE GROUND-WATER FLOW MODEL
                            VERSION 1.12.00 2/3/2017

 LIST FILE: p05_mf.list
                         UNIT    2

 OPENING p05_mf.dis
 FILE TYPE:DIS   UNIT   11   STATUS:OLD    
 FORMAT:FORMATTED              ACCESS:SEQUENTIAL          

 OPENING p05_mf.bas
 FILE TYPE:BAS6   UNIT   13   STATUS:OLD    
 FORMAT:FORMATTED              ACCESS:SEQUENTIAL          

 OPENING p05_mf.lpf
 FILE TYPE:LPF   UNIT   15   STATUS:OLD    
 FORMAT:FORMATTED              ACCESS:SEQUENTIAL          

 OPENING p05_mf.wel
 FILE TYPE:WEL   UNIT   20   STATUS:OLD    
 FORMAT:FORMATTED              ACCESS:SEQUENTIAL          

 OPENING p05_mf.sip
 FILE TYPE:SIP   UNIT   25   STATUS:OLD    
 FORMAT:FORMATTED              ACCESS:SEQUENTIAL          

 OPENING p05_mf.lmt6
 FILE TYPE:LMT6   UNIT   30   STATUS:OLD    
 FORMAT:FORMATTED              ACCESS:SEQUENTIAL          

 BAS -- BASIC PACKAGE, VERSION 7, 5/2/2005 INPUT READ FROM UNIT   13
 
 MODFLOW was compiled using mixed precision
 Precision of REAL variables:           6
 Precision of DOUBLE PRECISION variables:          15

 DISCRETIZATION INPUT DATA READ FROM UNIT   11
 # DIS package for  MODFLOW-2005, generated by Flopy.
    1 LAYERS        31 ROWS        31 COLUMNS
    1 STRESS PERIOD(S) IN SIMULATION
 MODEL TIME UNIT IS DAYS
 MODEL LENGTH UNIT IS METERS
  Confining bed flag for each layer:
   0

                     DELR =   10.0435    

                     DELC =   10.1085    

 TOP ELEVATION OF LAYER 1 =   10.0000    

   MODEL LAYER BOTTOM EL. =   9.00000     FOR LAYER   1


 STRESS PERIOD     LENGTH       TIME STEPS     MULTIPLIER FOR DELT    SS FLAG
 ----------------------------------------------------------------------------
        1         27.00000          1                    1.000         SS

 STEADY-STATE SIMULATION



 
 # BAS6 package for  MODFLOW-2005, generated by Flopy.                           
 THE FREE FORMAT OPTION HAS BEEN SELECTED



                     BOUNDARY ARRAY FOR LAYER   1
 READING ON UNIT   13 WITH FORMAT: (31I10)             

 AQUIFER HEAD WILL BE SET TO  -999.99     AT ALL NO-FLOW NODES (IBOUND=0).

             INITIAL HEAD =   10.0000     FOR LAYER   1

 DEFAULT OUTPUT CONTROL
 THE FOLLOWING OUTPUT COMES AT THE END OF EACH STRESS PERIOD:
 TOTAL VOLUMETRIC BUDGET
           HEAD

 LPF -- LAYER-PROPERTY FLOW PACKAGE, VERSION 7, 5/2/2005
         INPUT READ FROM UNIT   15
 # LPF package for  MODFLOW-2005, generated by Flopy.
 HEAD AT CELLS THAT CONVERT TO DRY= -1.00000E+30
 No named parameters

   LAYER FLAGS:
 LAYER       LAYTYP        LAYAVG         CHANI        LAYVKA        LAYWET
 ---------------------------------------------------------------------------
    1             0             0     1.000E+00             0             0

   INTERPRETATION OF LAYER FLAGS:
                        INTERBLOCK     HORIZONTAL    DATA IN
         LAYER TYPE   TRANSMISSIVITY   ANISOTROPY   ARRAY VKA   WETTABILITY
 LAYER      (LAYTYP)      (LAYAVG)       (CHANI)      (LAYVKA)      (LAYWET)
 ---------------------------------------------------------------------------
    1      CONFINED      HARMONIC     1.000E+00    VERTICAL K  NON-WETTABLE

 WETTING CAPABILITY IS NOT ACTIVE IN ANY LAYER

    HYD. COND. ALONG ROWS =   1.00000     FOR LAYER   1

      VERTICAL HYD. COND. =   1.00000     FOR LAYER   1

 WEL -- WELL PACKAGE, VERSION 7, 5/2/2005 INPUT READ FROM UNIT   20
 # WEL package for  MODFLOW-2005, generated by Flopy.
 No named parameters
 MAXIMUM OF      1 ACTIVE WELLS AT ONE TIME


     0 Well parameters

 SIP -- STRONGLY-IMPLICIT PROCEDURE SOLUTION PACKAGE
                    VERSION 7, 5/2/2005 INPUT READ FROM UNIT   25
 # SIP package for  MODFLOW-2005, generated by Flopy.
 MAXIMUM OF 200 ITERATIONS ALLOWED FOR CLOSURE
  5 ITERATION PARAMETERS

          SOLUTION BY THE STRONGLY IMPLICIT PROCEDURE
          -------------------------------------------
 MAXIMUM ITERATIONS ALLOWED FOR CLOSURE =      200
                 ACCELERATION PARAMETER =     1.0000    
      HEAD CHANGE CRITERION FOR CLOSURE =    0.10000E-04
      SIP HEAD CHANGE PRINTOUT INTERVAL =      999

     CALCULATE ITERATION PARAMETERS FROM MODEL CALCULATED WSEED


 ***Link-MT3DMS Package v7***
 OPENING LINK-MT3DMS OUTPUT FILE: mt3d_link.ftl                                                                                                                                                                                           
 ON UNIT NUMBER:    54
 FILE TYPE: UNFORMATTED
 HEADER OPTION: EXTENDED
 ***Link-MT3DMS Package v7***

1
                            STRESS PERIOD NO.    1, LENGTH =   27.00000    
                            -----------------------------------------------

                              NUMBER OF TIME STEPS =     1

                               MULTIPLIER FOR DELT =     1.000

                            INITIAL TIME STEP SIZE =   27.00000    

 WELL NO.  LAYER   ROW   COL   STRESS RATE         
 --------------------------------------------------
      1      1     16     16       100.0    

      1 WELL 
 
 SOLVING FOR HEAD 

 AVERAGE SEED = 0.00255097
 MINIMUM SEED = 0.00255097

     5 ITERATION PARAMETERS CALCULATED FROM AVERAGE SEED:

  0.000000E+00 0.775262E+00 0.949493E+00 0.988649E+00 0.997449E+00

    29 ITERATIONS FOR TIME STEP   1 IN STRESS PERIOD    1

 MAXIMUM HEAD CHANGE FOR EACH ITERATION:

    HEAD CHANGE   HEAD CHANGE   HEAD CHANGE   HEAD CHANGE   HEAD CHANGE
  LAYER,ROW,COL LAYER,ROW,COL LAYER,ROW,COL LAYER,ROW,COL LAYER,ROW,COL
 ----------------------------------------------------------------------
      36.14         10.63         9.620         10.41         5.908    
  (  1, 16, 16) (  1, 17, 15) (  1, 16, 16) (  1, 16, 16) (  1, 18, 22)
    -0.3525       -0.5010       -0.4476       -0.5932       -0.1865    
  (  1, 14, 20) (  1, 13, 19) (  1, 16, 16) (  1, 20, 20) (  1, 15, 26)
     0.3304E-01    0.4839E-01    0.4406E-01   -0.3604E-01    0.2149E-01
  (  1, 21, 21) (  1, 21, 21) (  1, 21, 21) (  1, 16, 16) (  1, 14, 18)
     0.2682E-02    0.2690E-02    0.5150E-02    0.1545E-02    0.2045E-02
  (  1, 16, 16) (  1, 16, 16) (  1, 15, 17) (  1, 11, 27) (  1, 11, 13)
     0.3971E-03    0.6570E-03    0.2271E-03    0.4283E-03    0.1298E-03
  (  1, 13, 19) (  1, 14, 18) (  1, 15, 17) (  1, 15, 17) (  1, 11, 11)
    -0.2777E-04   -0.2778E-04   -0.5586E-04   -0.8703E-05
  (  1, 16, 16) (  1, 16, 16) (  1, 16, 16) (  1, 23, 17)


 SAVING SATURATED THICKNESS AND FLOW TERMS ON UNIT   54 FOR MT3DMS
 BY THE LINK-MT3DMS PACKAGE V7 AT TIME STEP    1, STRESS PERIOD    1

1
              HEAD IN LAYER   1 AT END OF TIME STEP   1 IN STRESS PERIOD    1
  ---------------------------------------------------------------------------

            1           2           3           4           5           6           7           8           9          10
           11          12          13          14          15          16          17          18          19          20
           21          22          23          24          25          26          27          28          29          30
           31
 ........................................................................................................................
   1    10.00       10.00       10.00       10.00       10.00       10.00       10.00       10.00       10.00       10.00    
        10.00       10.00       10.00       10.00       10.00       10.00       10.00       10.00       10.00       10.00    
        10.00       10.00       10.00       10.00       10.00       10.00       10.00       10.00       10.00       10.00    
        10.00    
   2    10.00       10.12       10.24       10.36       10.48       10.60       10.72       10.84       10.95       11.05    
        11.15       11.23       11.30       11.35       11.38       11.39       11.38       11.35       11.30       11.23    
        11.15       11.05       10.95       10.84       10.72       10.60       10.48       10.36       10.24       10.12    
        10.00    
   3    10.00       10.24       10.49       10.73       10.97       11.21       11.45       11.68       11.90       12.11    
        12.30       12.47       12.61       12.72       12.78       12.80       12.78       12.72       12.61       12.47    
        12.30       12.11       11.90       11.68       11.45       11.21       10.97       10.73       10.49       10.24    
        10.00    
   4    10.00       10.36       10.73       11.09       11.46       11.82       12.18       12.53       12.87       13.19    
        13.49       13.75       13.96       14.12       14.22       14.26       14.22       14.12       13.96       13.75    
        13.49       13.19       12.87       12.53       12.18       11.82       11.46       11.09       10.73       10.36    
        10.00    
   5    10.00       10.48       10.97       11.46       11.94       12.43       12.92       13.39       13.86       14.30    
        14.70       15.06       15.37       15.59       15.74       15.78       15.74       15.59       15.37       15.06    
        14.70       14.30       13.86       13.39       12.92       12.43       11.94       11.46       10.97       10.48    
        10.00    
   6    10.00       10.60       11.21       11.82       12.43       13.05       13.66       14.27       14.86       15.43    
        15.97       16.44       16.85       17.15       17.34       17.41       17.34       17.15       16.85       16.44    
        15.97       15.43       14.86       14.27       13.66       13.05       12.43       11.82       11.21       10.60    
        10.00    
   7    10.00       10.72       11.45       12.18       12.92       13.66       14.41       15.16       15.90       16.61    
        17.29       17.90       18.42       18.82       19.08       19.16       19.08       18.82       18.42       17.90    
        17.29       16.61       15.90       15.16       14.41       13.66       12.92       12.18       11.45       10.72    
        10.00    
   8    10.00       10.84       11.68       12.54       13.40       14.28       15.16       16.06       16.95       17.83    
        18.67       19.45       20.12       20.64       20.98       21.10       20.98       20.64       20.12       19.45    
        18.67       17.83       16.95       16.06       15.16       14.28       13.40       12.54       11.68       10.84    
        10.00    
   9    10.00       10.95       11.91       12.88       13.87       14.88       15.91       16.96       18.02       19.09    
        20.13       21.10       21.97       22.66       23.11       23.26       23.11       22.66       21.97       21.10    
        20.13       19.09       18.02       16.96       15.91       14.88       13.87       12.88       11.91       10.95    
        10.00    
  10    10.00       11.06       12.12       13.20       14.31       15.45       16.63       17.85       19.10       20.37    
        21.64       22.87       23.99       24.91       25.53       25.75       25.53       24.91       23.99       22.87    
        21.64       20.37       19.10       17.85       16.63       15.45       14.31       13.20       12.12       11.06    
        10.00    
  11    10.00       11.15       12.32       13.50       14.73       15.99       17.31       18.70       20.15       21.65    
        23.20       24.74       26.21       27.47       28.36       28.68       28.36       27.47       26.21       24.74    
        23.20       21.65       20.15       18.70       17.31       15.99       14.73       13.50       12.32       11.15    
        10.00    
  12    10.00       11.24       12.49       13.77       15.09       16.48       17.94       19.48       21.14       22.90    
        24.76       26.70       28.64       30.41       31.75       32.28       31.75       30.41       28.64       26.70    
        24.76       22.90       21.14       19.48       17.94       16.48       15.09       13.77       12.49       11.24    
        10.00    
  13    10.00       11.31       12.63       13.99       15.40       16.88       18.47       20.17       22.01       24.03    
        26.25       28.66       31.23       33.80       35.96       36.95       35.96       33.80       31.23       28.66    
        26.25       24.03       22.01       20.17       18.47       16.88       15.40       13.99       12.63       11.31    
        10.00    
  14    10.00       11.36       12.74       14.15       15.63       17.20       18.88       20.70       22.72       24.97    
        27.53       30.47       33.83       37.59       41.34       43.64       41.34       37.59       33.83       30.47    
        27.53       24.97       22.72       20.70       18.88       17.20       15.63       14.15       12.74       11.36    
        10.00    
  15    10.00       11.39       12.80       14.26       15.78       17.39       19.13       21.05       23.18       25.61    
        28.44       31.83       36.03       41.40       48.20       54.97       48.20       41.40       36.03       31.83    
        28.44       25.61       23.18       21.05       19.13       17.39       15.78       14.26       12.80       11.39    
        10.00    
  16    10.00       11.40       12.82       14.29       15.83       17.46       19.22       21.16       23.34       25.83    
        28.77       32.38       37.06       43.75       55.09       80.03       55.09       43.75       37.06       32.38    
        28.77       25.83       23.34       21.16       19.22       17.46       15.83       14.29       12.82       11.40    
        10.00    
  17    10.00       11.39       12.80       14.26       15.78       17.39       19.13       21.05       23.18       25.61    
        28.44       31.83       36.03       41.40       48.20       54.97       48.20       41.40       36.03       31.83    
        28.44       25.61       23.18       21.05       19.13       17.39       15.78       14.26       12.80       11.39    
        10.00    
  18    10.00       11.36       12.74       14.15       15.63       17.20       18.88       20.70       22.72       24.97    
        27.53       30.47       33.83       37.59       41.34       43.64       41.34       37.59       33.83       30.47    
        27.53       24.97       22.72       20.70       18.88       17.20       15.63       14.15       12.74       11.36    
        10.00    
  19    10.00       11.31       12.63       13.99       15.40       16.88       18.47       20.17       22.01       24.03    
        26.25       28.66       31.23       33.80       35.96       36.95       35.96       33.80       31.23       28.66    
        26.25       24.03       22.01       20.17       18.47       16.88       15.40       13.99       12.63       11.31    
        10.00    
  20    10.00       11.24       12.49       13.77       15.09       16.48       17.94       19.48       21.14       22.90    
        24.76       26.70       28.64       30.41       31.75       32.28       31.75       30.41       28.64       26.70    
        24.76       22.90       21.14       19.48       17.94       16.48       15.09       13.77       12.49       11.24    
        10.00    
  21    10.00       11.15       12.32       13.50       14.73       15.99       17.31       18.70       20.15       21.65    
        23.20       24.74       26.21       27.47       28.36       28.68       28.36       27.47       26.21       24.74    
        23.20       21.65       20.15       18.70       17.31       15.99       14.73       13.50       12.32       11.15    
        10.00    
  22    10.00       11.06       12.12       13.20       14.31       15.45       16.63       17.85       19.10       20.37    
        21.64       22.87       23.99       24.91       25.53       25.75       25.53       24.91       23.99       22.87    
        21.64       20.37       19.10       17.85       16.63       15.45       14.31       13.20       12.12       11.06    
        10.00    
  23    10.00       10.95       11.91       12.88       13.87       14.88       15.91       16.96       18.02       19.09    
        20.13       21.10       21.97       22.66       23.11       23.26       23.11       22.66       21.97       21.10    
        20.13       19.09       18.02       16.96       15.91       14.88       13.87       12.88       11.91       10.95    
        10.00    
  24    10.00       10.84       11.68       12.54       13.40       14.28       15.16       16.06       16.95       17.83    
        18.67       19.45       20.12       20.64       20.98       21.10       20.98       20.64       20.12       19.45    
        18.67       17.83       16.95       16.06       15.16       14.28       13.40       12.54       11.68       10.84    
        10.00    
  25    10.00       10.72       11.45       12.18       12.92       13.66       14.41       15.16       15.90       16.61    
        17.29       17.90       18.42       18.82       19.08       19.16       19.08       18.82       18.42       17.90    
        17.29       16.61       15.90       15.16       14.41       13.66       12.92       12.18       11.45       10.72    
        10.00    
  26    10.00       10.60       11.21       11.82       12.43       13.05       13.66       14.27       14.86       15.43    
        15.97       16.44       16.85       17.15       17.34       17.41       17.34       17.15       16.85       16.44    
        15.97       15.43       14.86       14.27       13.66       13.05       12.43       11.82       11.21       10.60    
        10.00    
  27    10.00       10.48       10.97       11.46       11.94       12.43       12.92       13.39       13.86       14.30    
        14.70       15.06       15.37       15.59       15.74       15.78       15.74       15.59       15.37       15.06    
        14.70       14.30       13.86       13.39       12.92       12.43       11.94       11.46       10.97       10.48    
        10.00    
  28    10.00       10.36       10.73       11.09       11.46       11.82       12.18       12.53       12.87       13.19    
        13.49       13.75       13.96       14.12       14.22       14.26       14.22       14.12       13.96       13.75    
        13.49       13.19       12.87       12.53       12.18       11.82       11.46       11.09       10.73       10.36    
        10.00    
  29    10.00       10.24       10.49       10.73       10.97       11.21       11.45       11.68       11.90       12.11    
        12.30       12.47       12.61       12.72       12.78       12.80       12.78       12.72       12.61       12.47    
        12.30       12.11       11.90       11.68       11.45       11.21       10.97       10.73       10.49       10.24    
        10.00    
  30    10.00       10.12       10.24       10.36       10.48       10.60       10.72       10.84       10.95       11.05    
        11.15       11.23       11.30       11.35       11.38       11.39       11.38       11.35       11.30       11.23    
        11.15       11.05       10.95       10.84       10.72       10.60       10.48       10.36       10.24       10.12    
        10.00    
  31    10.00       10.00       10.00       10.00       10.00       10.00       10.00       10.00       10.00       10.00    
        10.00       10.00       10.00       10.00       10.00       10.00       10.00       10.00       10.00       10.00    
        10.00       10.00       10.00       10.00       10.00       10.00       10.00       10.00       10.00       10.00    
        10.00    
1
  VOLUMETRIC BUDGET FOR ENTIRE MODEL AT END OF TIME STEP    1, STRESS PERIOD   1
  ------------------------------------------------------------------------------

     CUMULATIVE VOLUMES      L**3       RATES FOR THIS TIME STEP      L**3/T
     ------------------                 ------------------------

           IN:                                      IN:
           ---                                      ---
             STORAGE =           0.0000               STORAGE =           0.0000
       CONSTANT HEAD =           0.0000         CONSTANT HEAD =           0.0000
               WELLS =        2700.0000                 WELLS =         100.0000

            TOTAL IN =        2700.0000              TOTAL IN =         100.0000

          OUT:                                     OUT:
          ----                                     ----
             STORAGE =           0.0000               STORAGE =           0.0000
       CONSTANT HEAD =        2700.0007         CONSTANT HEAD =         100.0000
               WELLS =           0.0000                 WELLS =           0.0000

           TOTAL OUT =        2700.0007             TOTAL OUT =         100.0000

            IN - OUT =      -7.3242E-04              IN - OUT =      -2.2888E-05

 PERCENT DISCREPANCY =          -0.00     PERCENT DISCREPANCY =          -0.00






         TIME SUMMARY AT END OF TIME STEP    1 IN STRESS PERIOD    1
                    SECONDS     MINUTES      HOURS       DAYS        YEARS
                    -----------------------------------------------------------
   TIME STEP LENGTH 2.33280E+06  38880.      648.00      27.000     7.39220E-02
 STRESS PERIOD TIME 2.33280E+06  38880.      648.00      27.000     7.39220E-02
         TOTAL TIME 2.33280E+06  38880.      648.00      27.000     7.39220E-02
1

 Run end date and time (yyyy/mm/dd hh:mm:ss): 2019/01/24 19:01:54
 Elapsed run time:  0.007 Seconds

